sectionalized/no_load/60p/TNB_DUMA_VLN.Txt

SYMMETRICAL COMPONENT VOLTAGES BY BUS (for 3-phase buses)

Bus               Mag:   V1 (kV)    p.u.     V2 (kV)   %V2/V1    V0 (kV)    %V0/V1

ppu_duma_33kv        19.12      1.003  9.246E-009  4.836E-008 1.239E-009 6.483E-009
ppu_duma_11kv_a      6.366      1.002  3.293E-009  5.172E-008 4.311E-011 6.771E-010
ppu_duma_11kv_b      6.328     0.9964  3.237E-009  5.116E-008 4.464E-010 7.055E-009
rpplngi2             6.424      1.012  3.28E-009  5.106E-008 4.522E-010 7.04E-009
pdtjlnmasjid         6.497      1.023  3.313E-009  5.099E-008 4.567E-010 7.03E-009
bella                6.546      1.031  3.334E-009  5.094E-008 4.598E-010 7.024E-009
pstpdgn               6.57      1.034  3.345E-009  5.092E-008 4.613E-010 7.022E-009
atria_1              6.459      1.017  3.296E-009  5.103E-008 4.54E-010 7.029E-009
hawker               6.482      1.021  3.306E-009   5.1E-008 4.699E-010 7.25E-009
duma7                6.363      1.002  3.235E-009  5.084E-008 4.636E-010 7.285E-009
haus                 6.435      1.013  3.232E-009  5.023E-008 2.188E-009  3.4E-008
duma6                6.629      1.044  3.197E-009  4.823E-008 9.355E-009 1.411E-007
duma13               6.805      1.071  3.147E-009  4.624E-008 1.705E-008 2.505E-007
ssu_duma5_im2        6.828      1.075  3.136E-009  4.592E-008 1.715E-008 2.511E-007
pdtlitrak            6.559      1.033  3.342E-009  5.095E-008 4.691E-010 7.152E-009
duma12               6.653      1.048  3.384E-009  5.087E-008 4.789E-010 7.198E-009
tmngh4               6.741      1.061  3.426E-009  5.081E-008 5.816E-010 8.627E-009
ssu_tmegah3_ir1      6.777      1.067  3.442E-009  5.079E-008 6.255E-010 9.23E-009
tmngh2               6.792      1.069  3.449E-009  5.078E-008 6.451E-010 9.498E-009
ssu_uptwres_im2      6.365      1.002  3.254E-009  5.112E-008 4.705E-010 7.392E-009
maybank              6.415       1.01  3.276E-009  5.107E-008 4.738E-010 7.386E-009
duma8                6.424      1.012  3.28E-009  5.107E-008 4.796E-010 7.466E-009
duma9                6.493      1.022  3.311E-009  5.099E-008 4.568E-010 7.035E-009
duma1                6.561      1.033  3.341E-009  5.093E-008 4.612E-010 7.029E-009
elite                6.585      1.037  3.352E-009  5.09E-008 4.627E-010 7.027E-009
pamdra               6.376      1.004  3.297E-009  5.171E-008 4.327E-011 6.786E-010
duma4                6.409      1.009  3.313E-009  5.169E-008 5.651E-011 8.817E-010
plsdra               6.483      1.021  3.347E-009  5.163E-008 1.047E-010 1.615E-009
prmte                6.454      1.016  3.334E-009  5.165E-008 9.148E-011 1.417E-009
prmta                6.469      1.019  3.341E-009  5.164E-008 9.254E-011 1.43E-009
pmontb               6.481       1.02  3.346E-009  5.163E-008 1.008E-010 1.556E-009
plngi_b              6.416       1.01  3.315E-009  5.167E-008 4.405E-011 6.865E-010
plngi_d              6.441      1.014  3.326E-009  5.165E-008 4.463E-011 6.93E-010
sprk9                6.581      1.036  3.391E-009  5.152E-008 4.97E-011 7.551E-010
bomba                6.593      1.038  3.396E-009  5.151E-008 5.423E-011 8.226E-010
sprk8                6.623      1.043  3.41E-009  5.148E-008 6.981E-011 1.054E-009
ssu_dsarcntr_ir1     6.391      1.006  3.304E-009  5.17E-008 4.352E-011 6.81E-010
duma10               6.484      1.021  3.346E-009  5.161E-008 4.593E-011 7.083E-010
balaipolis           6.485      1.021  3.346E-009  5.16E-008 4.596E-011 7.088E-010
ssu_uptwres_ir1      6.496      1.023  3.353E-009  5.162E-008 1.056E-010 1.626E-009
ppu_duma_vcb1            0          0          0          0         0         0
